180
XYZ file generated by orca_plot on BaseName=2x2-b3pw
  N       2.964708      2.964708      0.000000
  N       2.964708     -2.964708      0.000000
  N      -2.964708     -2.964708      0.000000
  N      -2.964708      2.964708      0.000000
  C       2.575370      4.232728      0.000000
  C       4.232728     -2.575370      0.000000
  C      -2.575370     -4.232728      0.000000
  C      -4.232728     -2.575370      0.000000
  C      -2.575370      4.232728      0.000000
  C       4.232728      2.575370      0.000000
  C       2.575370     -4.232728      0.000000
  C      -4.232728      2.575370      0.000000
  N       3.367979      5.349774      0.000000
  N       5.349774     -3.367979      0.000000
  N      -3.367979     -5.349774      0.000000
  N      -5.349774     -3.367979      0.000000
  N      -3.367979      5.349774      0.000000
  N       5.349774      3.367979      0.000000
  N       3.367979     -5.349774      0.000000
  N      -5.349774      3.367979      0.000000
  C       2.575822      6.466391      0.000000
  C       6.466391     -2.575822      0.000000
  C      -2.575822     -6.466391      0.000000
  C      -6.466391     -2.575822      0.000000
  C      -2.575822      6.466391      0.000000
  C       6.466391      2.575822      0.000000
  C       2.575822     -6.466391      0.000000
  C      -6.466391      2.575822      0.000000
  N       7.733606      7.733606      0.000000
  N       7.733606     -7.733606      0.000000
  N      -7.733606     -7.733606      0.000000
  N      -7.733606      7.733606      0.000000
  C       6.465144      8.121367      0.000000
  C       8.121367     -6.465144      0.000000
  C      -6.465144     -8.121367      0.000000
  C      -8.121367     -6.465144      0.000000
  C      -6.465144      8.121367      0.000000
  C       8.121367      6.465144      0.000000
  C       6.465144     -8.121367      0.000000
  C      -8.121367      6.465144      0.000000
  N       5.349321      7.327586      0.000000
  N       7.327586     -5.349321      0.000000
  N      -5.349321     -7.327586      0.000000
  N      -7.327586     -5.349321      0.000000
  N      -5.349321      7.327586      0.000000
  N       7.327586      5.349321      0.000000
  N       5.349321     -7.327586      0.000000
  N      -7.327586      5.349321      0.000000
  C       4.233453      8.122365      0.000000
  C       8.122365     -4.233453      0.000000
  C      -4.233453     -8.122365      0.000000
  C      -8.122365     -4.233453      0.000000
  C      -4.233453      8.122365      0.000000
  C       8.122365      4.233453      0.000000
  C       4.233453     -8.122365      0.000000
  C      -8.122365      4.233453      0.000000
  C       4.647113      9.520333      0.000000
  C       9.520333     -4.647113      0.000000
  C      -4.647113     -9.520333      0.000000
  C      -9.520333     -4.647113      0.000000
  C      -4.647113      9.520333      0.000000
  C       9.520333      4.647113      0.000000
  C       4.647113     -9.520333      0.000000
  C      -9.520333      4.647113      0.000000
  C       6.053575      9.519466      0.000000
  C       9.519466     -6.053575      0.000000
  C      -6.053575     -9.519466      0.000000
  C      -9.519466     -6.053575      0.000000
  C      -6.053575      9.519466      0.000000
  C       9.519466      6.053575      0.000000
  C       6.053575     -9.519466      0.000000
  C      -9.519466      6.053575      0.000000
  C       6.775223     10.711215      0.000000
  C      10.711215     -6.775223      0.000000
  C      -6.775223    -10.711215      0.000000
  C     -10.711215     -6.775223      0.000000
  C      -6.775223     10.711215      0.000000
  C      10.711215      6.775223      0.000000
  C       6.775223    -10.711215      0.000000
  C     -10.711215      6.775223      0.000000
  C       6.054910     11.902626      0.000000
  C      11.902626     -6.054910      0.000000
  C      -6.054910    -11.902626      0.000000
  C     -11.902626     -6.054910      0.000000
  C      -6.054910     11.902626      0.000000
  C      11.902626      6.054910      0.000000
  C       6.054910    -11.902626      0.000000
  C     -11.902626      6.054910      0.000000
  C       4.649152     11.903441      0.000000
  C      11.903441     -4.649152      0.000000
  C      -4.649152    -11.903441      0.000000
  C     -11.903441     -4.649152      0.000000
  C      -4.649152     11.903441      0.000000
  C      11.903441      4.649152      0.000000
  C       4.649152    -11.903441      0.000000
  C     -11.903441      4.649152      0.000000
  C       3.927213     10.712924      0.000000
  C      10.712924     -3.927213      0.000000
  C      -3.927213    -10.712924      0.000000
  C     -10.712924     -3.927213      0.000000
  C      -3.927213     10.712924      0.000000
  C      10.712924      3.927213      0.000000
  C       3.927213    -10.712924      0.000000
  C     -10.712924      3.927213      0.000000
  N       2.965779      7.735468      0.000000
  N       7.735468     -2.965779      0.000000
  N      -2.965779     -7.735468      0.000000
  N      -7.735468     -2.965779      0.000000
  N      -2.965779      7.735468      0.000000
  N       7.735468      2.965779      0.000000
  N       2.965779     -7.735468      0.000000
  N      -7.735468      2.965779      0.000000
  H       7.861128     10.701518      0.000000
  H      10.701518     -7.861128      0.000000
  H      -7.861128    -10.701518      0.000000
  H     -10.701518     -7.861128      0.000000
  H      -7.861128     10.701518      0.000000
  H      10.701518      7.861128      0.000000
  H       7.861128    -10.701518      0.000000
  H     -10.701518      7.861128      0.000000
  H       6.586067     12.850977      0.000000
  H      12.850977     -6.586067      0.000000
  H      -6.586067    -12.850977      0.000000
  H     -12.850977     -6.586067      0.000000
  H      -6.586067     12.850977      0.000000
  H      12.850977      6.586067      0.000000
  H       6.586067    -12.850977      0.000000
  H     -12.850977      6.586067      0.000000
  H       4.119155     12.852365      0.000000
  H      12.852365     -4.119155      0.000000
  H      -4.119155    -12.852365      0.000000
  H     -12.852365     -4.119155      0.000000
  H      -4.119155     12.852365      0.000000
  H      12.852365      4.119155      0.000000
  H       4.119155    -12.852365      0.000000
  H     -12.852365      4.119155      0.000000
  H       2.841369     10.704293      0.000000
  H      10.704293     -2.841369      0.000000
  H      -2.841369    -10.704293      0.000000
  H     -10.704293     -2.841369      0.000000
  H      -2.841369     10.704293      0.000000
  H      10.704293      2.841369      0.000000
  H       2.841369    -10.704293      0.000000
  H     -10.704293      2.841369      0.000000
  Zn      5.349334      5.349334      0.000000
  Zn      5.349334     -5.349334      0.000000
  Zn     -5.349334     -5.349334      0.000000
  Zn     -5.349334      5.349334      0.000000
  C       1.177783      4.640281      0.000000
  C       4.640281     -1.177783      0.000000
  C      -1.177783     -4.640281      0.000000
  C      -4.640281     -1.177783      0.000000
  C      -1.177783      4.640281      0.000000
  C       4.640281      1.177783      0.000000
  C       1.177783     -4.640281      0.000000
  C      -4.640281      1.177783      0.000000
  C       1.178043      6.059869      0.000000
  C       6.059869     -1.178043      0.000000
  C      -1.178043     -6.059869      0.000000
  C      -6.059869     -1.178043      0.000000
  C      -1.178043      6.059869      0.000000
  C       6.059869      1.178043      0.000000
  C       1.178043     -6.059869      0.000000
  C      -6.059869      1.178043      0.000000
  C       0.000000      3.899366      0.000000
  C       3.899366      0.000000      0.000000
  C       0.000000     -3.899366      0.000000
  C      -3.899366      0.000000      0.000000
  C       0.000000      6.800700      0.000000
  C       6.800700      0.000000      0.000000
  C       0.000000     -6.800700      0.000000
  C      -6.800700      0.000000      0.000000
  H       0.000000      2.814297      0.000000
  H       2.814297      0.000000      0.000000
  H       0.000000     -2.814297      0.000000
  H      -2.814297      0.000000      0.000000
  H       0.000000      7.885881      0.000000
  H       7.885881      0.000000      0.000000
  H       0.000000     -7.885881      0.000000
  H      -7.885881      0.000000      0.000000
